<?xml version="1.0" encoding="UTF-8"?>

<!-- generated on 2024-06-19 13:23:17 by Eclipse SUMO netedit Version 1.20.0
<configuration xmlns:xsi="http://www.w3.org/2001/XMLSchema-instance" xsi:noNamespaceSchemaLocation="http://sumo.dlr.de/xsd/neteditConfiguration.xsd">

    <input>
        <sumo-net-file value="C:\Users\lesch\Documents\Projects\aalen_v1\sumo\aalen.net.xml"/>
    </input>

    <output>
        <output-file value="C:\Users\lesch\Documents\Projects\aalen_v1\sumo\aalen.net.xml"/>
    </output>

    <processing>
        <geometry.min-radius.fix.railways value="false"/>
        <geometry.max-grade.fix value="false"/>
        <offset.disable-normalization value="true"/>
        <lefthand value="0"/>
    </processing>

    <junctions>
        <no-turnarounds value="true"/>
        <junctions.corner-detail value="5"/>
        <junctions.limit-turn-speed value="5.50"/>
        <rectangular-lane-cut value="0"/>
    </junctions>

    <pedestrian>
        <walkingareas value="0"/>
    </pedestrian>

</configuration>
-->

<net version="1.20" junctionCornerDetail="5" limitTurnSpeed="5.50" xmlns:xsi="http://www.w3.org/2001/XMLSchema-instance" xsi:noNamespaceSchemaLocation="http://sumo.dlr.de/xsd/net_file.xsd">

    <location netOffset="-579617.83,-5409308.92" convBoundary="0.00,0.00,1060.02,999.54" origBoundary="10.084929,48.831624,10.099357,48.840604" projParameter="+proj=utm +zone=32 +ellps=WGS84 +datum=WGS84 +units=m +no_defs"/>

    <type id="highway.living_street" priority="2" numLanes="1" speed="2.78" disallow="tram rail_urban rail rail_electric rail_fast ship" oneway="0"/>
    <type id="highway.pedestrian" priority="1" numLanes="1" speed="2.78" allow="pedestrian" oneway="1" width="2.00"/>
    <type id="highway.residential" priority="3" numLanes="1" speed="13.89" disallow="tram rail_urban rail rail_electric rail_fast ship" oneway="0"/>
    <type id="highway.secondary" priority="11" numLanes="1" speed="27.78" disallow="tram rail_urban rail rail_electric rail_fast ship" oneway="0"/>
    <type id="highway.secondary_link" priority="6" numLanes="1" speed="22.22" disallow="tram rail_urban rail rail_electric rail_fast ship" oneway="0"/>
    <type id="highway.tertiary" priority="10" numLanes="1" speed="22.22" disallow="tram rail_urban rail rail_electric rail_fast ship" oneway="0"/>

    <edge id=":10054421279_0" function="internal">
        <lane id=":10054421279_0_0" index="0" disallow="tram rail_urban rail rail_electric rail_fast ship cable_car subway" speed="13.89" length="7.65" shape="617.25,199.40 614.98,199.39 613.43,199.33 611.88,199.20 609.62,198.95"/>
    </edge>
    <edge id=":10054421279_1" function="internal">
        <lane id=":10054421279_1_0" index="0" disallow="tram rail_urban rail rail_electric rail_fast ship cable_car subway" speed="13.89" length="7.66" shape="609.98,195.77 612.21,195.52 613.62,194.55 615.03,193.49 617.27,193.00"/>
        <lane id=":10054421279_1_1" index="1" disallow="tram rail_urban rail rail_electric rail_fast ship cable_car subway" speed="13.89" length="7.66" shape="609.98,195.77 612.13,196.01 613.61,196.14 615.10,196.19 617.26,196.20"/>
    </edge>
    <edge id=":1761483484_0" function="internal">
        <lane id=":1761483484_0_0" index="0" disallow="tram rail_urban rail rail_electric rail_fast ship cable_car subway" speed="13.89" length="0.28" shape="491.51,453.19 491.70,452.94"/>
        <lane id=":1761483484_0_1" index="1" disallow="tram rail_urban rail rail_electric rail_fast ship cable_car subway" speed="13.89" length="0.28" shape="494.04,455.14 494.20,454.94"/>
    </edge>
    <edge id=":1766144542_0" function="internal">
        <lane id=":1766144542_0_0" index="0" disallow="tram rail_urban rail rail_electric rail_fast ship cable_car subway" speed="13.89" length="8.18" shape="352.06,657.97 350.77,659.96 350.21,661.54 349.67,663.12 348.43,665.16"/>
        <lane id=":1766144542_0_1" index="1" disallow="tram rail_urban rail rail_electric rail_fast ship cable_car subway" speed="13.89" length="8.18" shape="349.58,655.95 348.27,657.96 347.70,659.55 347.15,661.16 345.89,663.21"/>
        <lane id=":1766144542_0_2" index="2" disallow="tram rail_urban rail rail_electric rail_fast ship cable_car subway" speed="13.89" length="8.18" shape="349.58,655.95 347.87,657.66 346.43,658.58 345.01,659.51 343.35,661.26"/>
    </edge>
    <edge id=":1766144548_0" function="internal">
        <lane id=":1766144548_0_0" index="0" disallow="tram rail_urban rail rail_electric rail_fast ship cable_car subway" speed="13.89" length="8.13" shape="483.48,488.15 482.23,490.23 481.69,491.84 481.12,493.43 479.80,495.45"/>
        <lane id=":1766144548_0_1" index="1" disallow="tram rail_urban rail rail_electric rail_fast ship cable_car subway" speed="13.89" length="8.13" shape="480.92,486.23 479.69,488.28 479.17,489.87 478.61,491.44 477.32,493.43"/>
        <lane id=":1766144548_0_2" index="2" disallow="tram rail_urban rail rail_electric rail_fast ship cable_car subway" speed="13.89" length="8.13" shape="480.92,486.23 479.31,487.95 477.92,488.86 476.51,489.75 474.84,491.42"/>
    </edge>
    <edge id=":1766173444_0" function="internal">
        <lane id=":1766173444_0_0" index="0" disallow="tram rail_urban rail rail_electric rail_fast ship cable_car subway" speed="13.89" length="7.01" shape="280.49,784.33 279.96,786.34 279.64,787.73 279.39,789.13 279.06,791.19"/>
    </edge>
    <edge id=":1766173444_1" function="internal">
        <lane id=":1766173444_1_0" index="0" disallow="tram rail_urban rail rail_electric rail_fast ship cable_car subway" speed="13.89" length="8.97" shape="275.90,790.70 275.34,787.84 273.48,786.01 271.77,784.20 271.68,781.39"/>
        <lane id=":1766173444_1_1" index="1" disallow="tram rail_urban rail rail_electric rail_fast ship cable_car subway" speed="13.89" length="8.97" shape="275.90,790.70 275.80,788.21 275.06,786.49 274.44,784.80 274.72,782.41"/>
        <lane id=":1766173444_1_2" index="2" disallow="tram rail_urban rail rail_electric rail_fast ship cable_car subway" speed="13.89" length="8.97" shape="275.90,790.70 276.27,788.49 276.60,787.00 277.05,785.54 277.75,783.42"/>
    </edge>
    <edge id=":1766184461_0" function="internal">
        <lane id=":1766184461_0_0" index="0" disallow="tram rail_urban rail rail_electric rail_fast ship cable_car subway" speed="5.56" length="7.78" shape="738.13,731.73 735.05,738.87"/>
    </edge>
    <edge id=":1766184461_1" function="internal">
        <lane id=":1766184461_1_0" index="0" disallow="tram rail_urban rail rail_electric rail_fast ship cable_car subway" speed="5.56" length="8.37" shape="732.08,737.67 732.55,735.19 732.13,733.34 731.75,731.50 732.32,729.06"/>
        <lane id=":1766184461_1_1" index="1" disallow="tram rail_urban rail rail_electric rail_fast ship cable_car subway" speed="5.56" length="8.37" shape="732.08,737.67 735.22,730.40"/>
    </edge>
    <edge id=":1766229283_0" function="internal">
        <lane id=":1766229283_0_0" index="0" disallow="tram rail_urban rail rail_electric rail_fast ship cable_car subway" speed="5.56" length="13.70" shape="441.13,736.67 437.85,735.33 434.74,734.19 431.59,733.22 428.14,732.39"/>
    </edge>
    <edge id=":1766229283_1" function="internal">
        <lane id=":1766229283_1_0" index="0" disallow="tram rail_urban rail rail_electric rail_fast ship cable_car subway" speed="4.17" length="4.23" shape="441.13,736.67 437.51,734.48"/>
    </edge>
    <edge id=":1766229283_2" function="internal">
        <lane id=":1766229283_2_0" index="0" disallow="tram rail_urban rail rail_electric rail_fast ship cable_car subway" speed="3.65" length="1.44" shape="441.13,736.67 440.34,735.47"/>
    </edge>
    <edge id=":1766229283_8" function="internal">
        <lane id=":1766229283_8_0" index="0" disallow="tram rail_urban rail rail_electric rail_fast ship cable_car subway" speed="4.17" length="10.76" shape="437.51,734.48 435.72,731.75 435.76,728.48 437.62,724.68"/>
    </edge>
    <edge id=":1766229283_9" function="internal">
        <lane id=":1766229283_9_0" index="0" disallow="tram rail_urban rail rail_electric rail_fast ship cable_car subway" speed="3.65" length="3.23" shape="440.34,735.47 440.28,734.58 440.97,734.00 442.38,733.73"/>
    </edge>
    <edge id=":1766229283_3" function="internal">
        <lane id=":1766229283_3_0" index="0" disallow="tram rail_urban rail rail_electric rail_fast ship cable_car subway" speed="4.17" length="9.06" shape="440.26,726.49 439.14,728.78 439.12,730.75 440.20,732.40 442.38,733.73"/>
    </edge>
    <edge id=":1766229283_4" function="internal">
        <lane id=":1766229283_4_0" index="0" disallow="tram rail_urban rail rail_electric rail_fast ship cable_car subway" speed="4.17" length="14.36" shape="440.26,726.49 437.61,729.63 434.70,731.67 431.55,732.59 428.14,732.39"/>
    </edge>
    <edge id=":1766229283_5" function="internal">
        <lane id=":1766229283_5_0" index="0" disallow="tram rail_urban rail rail_electric rail_fast ship cable_car subway" speed="2.78" length="4.67" shape="440.26,726.49 438.92,727.03 438.04,726.91 437.60,726.13 437.62,724.68"/>
    </edge>
    <edge id=":1766229283_6" function="internal">
        <lane id=":1766229283_6_0" index="0" disallow="tram rail_urban rail rail_electric rail_fast ship cable_car subway" speed="4.17" length="10.56" shape="428.81,729.26 431.22,729.37 433.49,728.65 435.62,727.08 437.62,724.68"/>
    </edge>
    <edge id=":1766229283_7" function="internal">
        <lane id=":1766229283_7_0" index="0" disallow="tram rail_urban rail rail_electric rail_fast ship cable_car subway" speed="5.56" length="14.31" shape="428.81,729.26 432.35,730.12 435.71,731.15 439.01,732.35 442.38,733.73"/>
    </edge>
    <edge id=":1767606779_0" function="internal">
        <lane id=":1767606779_0_0" index="0" disallow="tram rail_urban rail rail_electric rail_fast ship cable_car subway" speed="8.34" length="0.20" shape="693.57,559.01 693.56,559.07 693.55,559.11 693.54,559.15 693.53,559.20"/>
    </edge>
    <edge id=":1767606779_1" function="internal">
        <lane id=":1767606779_1_0" index="0" disallow="tram rail_urban rail rail_electric rail_fast ship cable_car subway" speed="8.34" length="0.60" shape="690.37,558.71 690.40,558.54 690.42,558.42 690.45,558.30 690.50,558.13"/>
    </edge>
    <edge id=":1774062473_0" function="internal">
        <lane id=":1774062473_0_0" index="0" disallow="tram rail_urban rail rail_electric rail_fast ship cable_car subway" speed="13.89" length="53.74" shape="797.53,574.34 795.51,583.20 792.33,598.79 788.86,615.26 785.98,626.81"/>
    </edge>
    <edge id=":1774062473_1" function="internal">
        <lane id=":1774062473_1_0" index="0" disallow="tram rail_urban rail rail_electric rail_fast ship cable_car subway" speed="8.70" length="23.84" shape="797.53,574.34 794.69,579.66 790.79,581.36 785.81,579.43 779.77,573.88"/>
        <lane id=":1774062473_1_1" index="1" disallow="tram rail_urban rail rail_electric rail_fast ship cable_car subway" speed="7.64" length="18.04" shape="797.53,574.34 795.38,578.36 792.43,579.63 788.66,578.16 784.09,573.93"/>
    </edge>
    <edge id=":1774062473_3" function="internal">
        <lane id=":1774062473_3_0" index="0" disallow="tram rail_urban rail rail_electric rail_fast ship cable_car subway" speed="13.89" length="53.07" shape="791.24,574.03 792.69,584.73 791.39,600.23 788.71,615.81 785.98,626.81"/>
        <lane id=":1774062473_3_1" index="1" disallow="tram rail_urban rail rail_electric rail_fast ship cable_car subway" speed="13.89" length="53.07" shape="787.67,573.98 789.19,584.56 788.06,599.77 785.55,615.08 782.90,625.95"/>
    </edge>
    <edge id=":1774062473_5" function="internal">
        <lane id=":1774062473_5_0" index="0" disallow="tram rail_urban rail rail_electric rail_fast ship cable_car subway" speed="3.93" length="1.38" shape="787.67,573.98 786.88,575.12"/>
    </edge>
    <edge id=":1774062473_10" function="internal">
        <lane id=":1774062473_10_0" index="0" disallow="tram rail_urban rail rail_electric rail_fast ship cable_car subway" speed="3.93" length="3.84" shape="786.88,575.12 786.76,575.31 785.85,575.75 784.97,575.29 784.09,573.93"/>
    </edge>
    <edge id=":1774062473_6" function="internal">
        <lane id=":1774062473_6_0" index="0" disallow="tram rail_urban rail rail_electric rail_fast ship cable_car subway" speed="13.89" length="52.77" shape="776.73,624.22 780.99,607.58 782.19,593.63 780.34,582.38 775.43,573.82"/>
        <lane id=":1774062473_6_1" index="1" disallow="tram rail_urban rail rail_electric rail_fast ship cable_car subway" speed="13.89" length="52.77" shape="779.81,625.08 784.35,607.78 785.85,593.48 784.32,582.18 779.77,573.88"/>
        <lane id=":1774062473_6_2" index="2" disallow="tram rail_urban rail rail_electric rail_fast ship cable_car subway" speed="13.89" length="52.77" shape="779.81,625.08 785.04,606.48 787.49,591.75 787.18,580.90 784.09,573.93"/>
    </edge>
    <edge id=":1774062473_9" function="internal">
        <lane id=":1774062473_9_0" index="0" disallow="tram rail_urban rail rail_electric rail_fast ship cable_car subway" speed="3.65" length="1.44" shape="779.81,625.08 780.91,624.14"/>
    </edge>
    <edge id=":1774062473_11" function="internal">
        <lane id=":1774062473_11_0" index="0" disallow="tram rail_urban rail rail_electric rail_fast ship cable_car subway" speed="3.65" length="3.23" shape="780.91,624.14 781.79,623.97 782.45,624.57 782.90,625.95"/>
    </edge>
    <edge id=":2523981449_0" function="internal">
        <lane id=":2523981449_0_0" index="0" disallow="tram rail_urban rail rail_electric rail_fast ship cable_car subway" speed="3.65" length="4.67" shape="42.36,669.85 41.33,668.84 41.09,667.98 41.63,667.27 42.96,666.71"/>
    </edge>
    <edge id=":2523981453_0" function="internal">
        <lane id=":2523981453_0_0" index="0" disallow="tram rail_urban rail rail_electric rail_fast ship cable_car subway" speed="11.50" length="18.82" shape="149.01,710.78 146.95,708.55 143.36,703.49 139.85,698.26 138.05,695.52"/>
    </edge>
    <edge id=":2523981453_1" function="internal">
        <lane id=":2523981453_1_0" index="0" disallow="tram rail_urban rail rail_electric rail_fast ship cable_car subway" speed="7.65" length="7.97" shape="141.23,694.52 142.60,696.19 144.18,697.33 145.95,697.94 147.93,698.03"/>
        <lane id=":2523981453_1_1" index="1" disallow="tram rail_urban rail rail_electric rail_fast ship cable_car subway" speed="8.48" length="9.94" shape="141.23,694.52 143.37,697.53 145.25,699.65 146.86,700.88 148.20,701.22"/>
        <lane id=":2523981453_1_2" index="2" disallow="tram rail_urban rail rail_electric rail_fast ship cable_car subway" speed="9.38" length="12.30" shape="141.23,694.52 142.45,696.43 144.68,699.81 146.99,703.01 148.47,704.41"/>
    </edge>
    <edge id=":2540395496_0" function="internal">
        <lane id=":2540395496_0_0" index="0" disallow="tram rail_urban rail rail_electric rail_fast ship cable_car subway" speed="13.89" length="8.20" shape="495.58,448.08 496.87,446.07 497.42,444.48 497.97,442.88 499.23,440.84"/>
        <lane id=":2540395496_0_1" index="1" disallow="tram rail_urban rail rail_electric rail_fast ship cable_car subway" speed="13.89" length="8.20" shape="498.08,450.08 499.38,448.05 499.94,446.45 500.49,444.85 501.76,442.80"/>
        <lane id=":2540395496_0_2" index="2" disallow="tram rail_urban rail rail_electric rail_fast ship cable_car subway" speed="13.89" length="8.20" shape="498.08,450.08 499.78,448.35 501.21,447.43 502.63,446.50 504.29,444.75"/>
    </edge>
    <edge id=":2622671966_0" function="internal">
        <lane id=":2622671966_0_0" index="0" disallow="tram rail_urban rail rail_electric rail_fast ship cable_car subway" speed="3.65" length="4.67" shape="246.35,100.89 246.24,99.45 246.62,98.64 247.50,98.46 248.87,98.91"/>
    </edge>
    <edge id=":2622671973_0" function="internal">
        <lane id=":2622671973_0_0" index="0" disallow="tram rail_urban rail rail_electric rail_fast ship cable_car subway" speed="13.89" length="5.17" shape="351.90,235.14 348.34,231.35"/>
        <lane id=":2622671973_0_1" index="1" disallow="tram rail_urban rail rail_electric rail_fast ship cable_car subway" speed="13.89" length="5.17" shape="354.22,232.94 350.70,229.19"/>
    </edge>
    <edge id=":2622671973_2" function="internal">
        <lane id=":2622671973_2_0" index="0" disallow="tram rail_urban rail rail_electric rail_fast ship cable_car subway" speed="13.89" length="5.87" shape="355.42,224.87 356.88,225.72 358.29,225.62 359.71,225.51 361.20,226.34"/>
        <lane id=":2622671973_2_1" index="1" disallow="tram rail_urban rail rail_electric rail_fast ship cable_car subway" speed="13.89" length="5.87" shape="353.06,227.03 354.53,227.89 355.95,227.80 357.38,227.70 358.87,228.54"/>
        <lane id=":2622671973_2_2" index="2" disallow="tram rail_urban rail rail_electric rail_fast ship cable_car subway" speed="13.89" length="5.87" shape="353.06,227.03 356.55,230.74"/>
    </edge>
    <edge id=":2623641421_0" function="internal">
        <lane id=":2623641421_0_0" index="0" disallow="tram rail_urban rail rail_electric rail_fast ship cable_car subway" speed="13.89" length="9.19" shape="711.39,157.52 710.72,160.29 711.74,162.68 712.71,165.05 711.86,167.80"/>
        <lane id=":2623641421_0_1" index="1" disallow="tram rail_urban rail rail_electric rail_fast ship cable_car subway" speed="13.89" length="9.19" shape="711.39,157.52 710.41,159.84 710.42,161.74 710.40,163.61 709.32,165.86"/>
        <lane id=":2623641421_0_2" index="2" disallow="tram rail_urban rail rail_electric rail_fast ship cable_car subway" speed="13.89" length="9.19" shape="711.39,157.52 706.77,163.91"/>
    </edge>
    <edge id=":2623641421_3" function="internal">
        <lane id=":2623641421_3_0" index="0" disallow="tram rail_urban rail rail_electric rail_fast ship cable_car subway" speed="13.89" length="8.09" shape="704.23,161.97 705.25,159.81 705.23,158.00 705.18,156.16 706.09,153.92"/>
        <lane id=":2623641421_3_1" index="1" disallow="tram rail_urban rail rail_electric rail_fast ship cable_car subway" speed="13.89" length="8.09" shape="704.23,161.97 708.74,155.72"/>
    </edge>
    <edge id=":2623641423_0" function="internal">
        <lane id=":2623641423_0_0" index="0" disallow="tram rail_urban rail rail_electric rail_fast ship cable_car subway" speed="13.89" length="8.12" shape="600.35,290.92 601.51,288.81 601.99,287.19 602.49,285.58 603.72,283.52"/>
        <lane id=":2623641423_0_1" index="1" disallow="tram rail_urban rail rail_electric rail_fast ship cable_car subway" speed="13.89" length="8.12" shape="602.98,292.75 604.12,290.67 604.59,289.06 605.07,287.47 606.28,285.44"/>
    </edge>
    <edge id=":2623641424_0" function="internal">
        <lane id=":2623641424_0_0" index="0" disallow="tram rail_urban rail rail_electric rail_fast ship cable_car subway" speed="13.89" length="8.15" shape="580.33,317.13 581.42,314.97 581.85,313.32 582.30,311.69 583.46,309.58"/>
        <lane id=":2623641424_0_1" index="1" disallow="tram rail_urban rail rail_electric rail_fast ship cable_car subway" speed="13.89" length="8.15" shape="580.33,317.13 581.83,315.27 583.16,314.24 584.52,313.23 586.08,311.41"/>
        <lane id=":2623641424_0_2" index="2" disallow="tram rail_urban rail rail_electric rail_fast ship cable_car subway" speed="13.89" length="8.15" shape="583.03,318.86 584.50,317.02 585.82,316.02 587.16,315.03 588.71,313.24"/>
    </edge>
    <edge id=":2623641425_0" function="internal">
        <lane id=":2623641425_0_0" index="0" disallow="tram rail_urban rail rail_electric rail_fast ship cable_car subway" speed="13.89" length="8.14" shape="597.79,316.21 596.66,318.27 596.23,319.87 595.83,321.49 594.77,323.60"/>
        <lane id=":2623641425_0_1" index="1" disallow="tram rail_urban rail rail_electric rail_fast ship cable_car subway" speed="13.89" length="8.14" shape="595.17,314.38 594.01,316.47 593.57,318.09 593.16,319.73 592.08,321.87"/>
        <lane id=":2623641425_0_2" index="2" disallow="tram rail_urban rail rail_electric rail_fast ship cable_car subway" speed="13.89" length="8.14" shape="595.17,314.38 593.58,316.21 592.22,317.23 590.89,318.27 589.38,320.15"/>
    </edge>
    <edge id=":2623641426_0" function="internal">
        <lane id=":2623641426_0_0" index="0" disallow="tram rail_urban rail rail_electric rail_fast ship cable_car subway" speed="13.89" length="0.29" shape="485.09,461.55 485.25,461.34"/>
        <lane id=":2623641426_0_1" index="1" disallow="tram rail_urban rail rail_electric rail_fast ship cable_car subway" speed="13.89" length="0.29" shape="487.59,463.54 487.79,463.29"/>
    </edge>
    <edge id=":2669030870_0" function="internal">
        <lane id=":2669030870_0_0" index="0" disallow="tram rail_urban rail rail_electric rail_fast ship cable_car subway" speed="13.89" length="5.75" shape="323.09,698.11 319.84,702.71"/>
        <lane id=":2669030870_0_1" index="1" disallow="tram rail_urban rail rail_electric rail_fast ship cable_car subway" speed="13.89" length="5.75" shape="320.55,696.15 317.23,700.85"/>
        <lane id=":2669030870_0_2" index="2" disallow="tram rail_urban rail rail_electric rail_fast ship cable_car subway" speed="13.89" length="5.75" shape="318.02,694.19 314.63,698.99"/>
    </edge>
    <edge id=":274068418_0" function="internal">
        <lane id=":274068418_0_0" index="0" disallow="tram rail_urban rail rail_electric rail_fast ship cable_car subway" speed="3.65" length="4.67" shape="730.61,749.83 729.42,750.64 728.53,750.71 727.94,750.04 727.65,748.63"/>
    </edge>
    <edge id=":276083925_0" function="internal">
        <lane id=":276083925_0_0" index="0" disallow="tram rail_urban rail rail_electric rail_fast ship cable_car subway" speed="2.78" length="4.67" shape="681.82,615.30 681.00,616.48 680.19,616.86 679.40,616.44 678.62,615.23"/>
    </edge>
    <edge id=":276083947_0" function="internal">
        <lane id=":276083947_0_0" index="0" disallow="tram rail_urban rail rail_electric rail_fast ship cable_car subway" speed="13.89" length="8.03" shape="363.24,488.13 356.83,483.29"/>
    </edge>
    <edge id=":276083947_1" function="internal">
        <lane id=":276083947_1_0" index="0" disallow="tram rail_urban rail rail_electric rail_fast ship cable_car subway" speed="13.89" length="8.35" shape="358.79,480.76 361.02,481.85 362.89,481.90 364.78,481.93 367.04,482.98"/>
        <lane id=":276083947_1_1" index="1" disallow="tram rail_urban rail rail_electric rail_fast ship cable_car subway" speed="13.89" length="8.35" shape="358.79,480.76 365.14,485.56"/>
    </edge>
    <edge id=":276084991_0" function="internal">
        <lane id=":276084991_0_0" index="0" disallow="tram rail_urban rail rail_electric rail_fast ship cable_car subway" speed="2.78" length="4.67" shape="484.17,661.69 485.46,662.35 485.94,663.10 485.64,663.94 484.54,664.87"/>
    </edge>
    <edge id=":276673862_0" function="internal">
        <lane id=":276673862_0_0" index="0" disallow="tram rail_urban rail rail_electric rail_fast ship cable_car subway" speed="13.89" length="8.81" shape="411.76,293.76 410.07,291.90 409.47,290.11 408.88,288.31 407.19,286.45"/>
        <lane id=":276673862_0_1" index="1" disallow="tram rail_urban rail rail_electric rail_fast ship cable_car subway" speed="13.89" length="8.81" shape="413.65,291.18 411.96,289.32 411.36,287.52 410.77,285.73 409.08,283.87"/>
    </edge>
    <edge id=":276673862_2" function="internal">
        <lane id=":276673862_2_0" index="0" disallow="tram rail_urban rail rail_electric rail_fast ship cable_car subway" speed="13.89" length="8.80" shape="414.75,276.12 416.44,277.98 417.03,279.77 417.62,281.57 419.31,283.42"/>
        <lane id=":276673862_2_1" index="1" disallow="tram rail_urban rail rail_electric rail_fast ship cable_car subway" speed="13.89" length="8.80" shape="412.86,278.70 414.55,280.56 415.14,282.36 415.73,284.15 417.42,286.01"/>
    </edge>
    <edge id=":280111149_0" function="internal">
        <lane id=":280111149_0_0" index="0" disallow="tram rail_urban rail rail_electric rail_fast ship cable_car subway" speed="3.65" length="4.67" shape="-0.92,216.78 -1.44,215.43 -1.31,214.55 -0.52,214.12 0.92,214.16"/>
    </edge>
    <edge id=":280113123_0" function="internal">
        <lane id=":280113123_0_0" index="0" disallow="tram rail_urban rail rail_electric rail_fast ship cable_car subway" speed="3.65" length="4.67" shape="245.23,275.64 243.87,276.13 242.99,275.98 242.58,275.18 242.65,273.74"/>
    </edge>
    <edge id=":280113135_0" function="internal">
        <lane id=":280113135_0_0" index="0" disallow="tram rail_urban rail rail_electric rail_fast ship cable_car subway" speed="13.89" length="8.85" shape="291.28,168.38 290.12,166.14 290.01,164.24 289.91,162.34 288.77,160.08"/>
        <lane id=":280113135_0_1" index="1" disallow="tram rail_urban rail rail_electric rail_fast ship cable_car subway" speed="13.89" length="8.85" shape="293.77,166.38 292.62,164.14 292.52,162.25 292.42,160.35 291.29,158.10"/>
    </edge>
    <edge id=":280113135_2" function="internal">
        <lane id=":280113135_2_0" index="0" disallow="tram rail_urban rail rail_electric rail_fast ship cable_car subway" speed="13.89" length="8.75" shape="298.84,152.17 299.95,154.40 300.04,156.28 300.12,158.15 301.26,160.37"/>
        <lane id=":280113135_2_1" index="1" disallow="tram rail_urban rail rail_electric rail_fast ship cable_car subway" speed="13.89" length="8.75" shape="296.32,154.15 297.44,156.39 297.53,158.27 297.62,160.15 298.77,162.37"/>
    </edge>
    <edge id=":280113136_0" function="internal">
        <lane id=":280113136_0_0" index="0" disallow="tram rail_urban rail rail_electric rail_fast ship cable_car subway" speed="13.89" length="5.20" shape="348.21,231.21 344.75,227.24"/>
        <lane id=":280113136_0_1" index="1" disallow="tram rail_urban rail rail_electric rail_fast ship cable_car subway" speed="13.89" length="5.20" shape="350.56,229.04 347.19,225.17"/>
    </edge>
    <edge id=":280113136_2" function="internal">
        <lane id=":280113136_2_0" index="0" disallow="tram rail_urban rail rail_electric rail_fast ship cable_car subway" speed="13.89" length="6.17" shape="354.49,218.93 355.14,220.47 354.86,221.85 354.59,223.22 355.28,224.72"/>
        <lane id=":280113136_2_1" index="1" disallow="tram rail_urban rail rail_electric rail_fast ship cable_car subway" speed="13.89" length="6.17" shape="352.06,221.01 352.73,222.57 352.47,223.97 352.22,225.36 352.92,226.88"/>
    </edge>
    <edge id=":280113138_0" function="internal">
        <lane id=":280113138_0_0" index="0" disallow="tram rail_urban rail rail_electric rail_fast ship cable_car subway" speed="7.20" length="11.50" shape="319.28,197.73 317.27,196.22 314.93,195.97 312.25,196.97 309.23,199.23"/>
    </edge>
    <edge id=":280113138_1" function="internal">
        <lane id=":280113138_1_0" index="0" disallow="tram rail_urban rail rail_electric rail_fast ship cable_car subway" speed="13.89" length="14.10" shape="319.28,197.73 310.21,186.86"/>
        <lane id=":280113138_1_1" index="1" disallow="tram rail_urban rail rail_electric rail_fast ship cable_car subway" speed="13.89" length="14.10" shape="321.70,195.64 312.71,184.86"/>
    </edge>
    <edge id=":280113138_3" function="internal">
        <lane id=":280113138_3_0" index="0" disallow="tram rail_urban rail rail_electric rail_fast ship cable_car subway" speed="3.65" length="1.44" shape="321.70,195.64 321.52,194.21"/>
    </edge>
    <edge id=":280113138_13" function="internal">
        <lane id=":280113138_13_0" index="0" disallow="tram rail_urban rail rail_electric rail_fast ship cable_car subway" speed="3.65" length="3.23" shape="321.52,194.21 321.87,193.38 322.74,193.16 324.13,193.55"/>
    </edge>
    <edge id=":280113138_4" function="internal">
        <lane id=":280113138_4_0" index="0" disallow="tram rail_urban rail rail_electric rail_fast ship cable_car subway" speed="13.89" length="14.18" shape="317.70,180.85 320.68,183.75 323.26,185.17 325.88,186.56 328.97,189.37"/>
        <lane id=":280113138_4_1" index="1" disallow="tram rail_urban rail rail_electric rail_fast ship cable_car subway" speed="13.89" length="14.18" shape="315.20,182.85 318.20,185.78 320.80,187.22 323.44,188.62 326.55,191.46"/>
        <lane id=":280113138_4_2" index="2" disallow="tram rail_urban rail rail_electric rail_fast ship cable_car subway" speed="13.89" length="14.18" shape="315.20,182.85 324.13,193.55"/>
    </edge>
    <edge id=":280113138_7" function="internal">
        <lane id=":280113138_7_0" index="0" disallow="tram rail_urban rail rail_electric rail_fast ship cable_car subway" speed="9.43" length="2.74" shape="315.20,182.85 316.33,185.35"/>
    </edge>
    <edge id=":280113138_8" function="internal">
        <lane id=":280113138_8_0" index="0" disallow="tram rail_urban rail rail_electric rail_fast ship cable_car subway" speed="3.65" length="1.44" shape="315.20,182.85 315.33,184.29"/>
    </edge>
    <edge id=":280113138_14" function="internal">
        <lane id=":280113138_14_0" index="0" disallow="tram rail_urban rail rail_electric rail_fast ship cable_car subway" speed="9.43" length="16.47" shape="316.33,185.35 316.74,186.26 316.26,190.12 313.75,194.45 309.23,199.23"/>
    </edge>
    <edge id=":280113138_15" function="internal">
        <lane id=":280113138_15_0" index="0" disallow="tram rail_urban rail rail_electric rail_fast ship cable_car subway" speed="3.65" length="3.23" shape="315.33,184.29 314.96,185.10 314.08,185.29 312.71,184.86"/>
    </edge>
    <edge id=":280113138_9" function="internal">
        <lane id=":280113138_9_0" index="0" disallow="tram rail_urban rail rail_electric rail_fast ship cable_car subway" speed="6.64" length="9.03" shape="307.08,196.85 308.65,194.97 309.28,193.01 308.97,190.97 307.72,188.86"/>
    </edge>
    <edge id=":280113138_10" function="internal">